/*---------------------------------------------------------------------------*\
  =========                 |
  \\      /  F ield         | OpenFOAM: The Open Source CFD Toolbox
   \\    /   O peration     | Website:  https://openfoam.org
    \\  /    A nd           | Version:  7
     \\/     M anipulation  |
\*---------------------------------------------------------------------------*/
Build  : 7-49b2b3b8b082
Exec   : checkMesh
Date   : Apr 05 2021
Time   : 00:17:22
Host   : "c448-024.stampede2.tacc.utexas.edu"
PID    : 65487
I/O    : uncollated
Case   : /work/06798/steinjd/stampede2/coe-347/of2/steady
nProcs : 1
sigFpe : Enabling floating point exception trapping (FOAM_SIGFPE).
fileModificationChecking : Monitoring run-time modified files using timeStampMaster (fileModificationSkew 10)
allowSystemOperations : Allowing user-supplied system call operations

// * * * * * * * * * * * * * * * * * * * * * * * * * * * * * * * * * * * * * //
Create time

Create polyMesh for time = 0

Time = 0

Mesh stats
    points:           127826
    internal points:  0
    faces:            253663
    internal faces:   125837
    cells:            63250
    faces per cell:   6
    boundary patches: 6
    point zones:      0
    face zones:       0
    cell zones:       0

Overall number of cells of each type:
    hexahedra:     63250
    prisms:        0
    wedges:        0
    pyramids:      0
    tet wedges:    0
    tetrahedra:    0
    polyhedra:     0

Checking topology...
    Boundary definition OK.
    Cell to face addressing OK.
    Point usage OK.
    Upper triangular ordering OK.
    Face vertices OK.
    Number of regions: 1 (OK).

Checking patch topology for multiply connected surfaces...
    Patch               Faces    Points   Surface topology                  
    inlet               250      502      ok (non-closed singly connected)  
    outlet              250      502      ok (non-closed singly connected)  
    cylinder            400      800      ok (non-closed singly connected)  
    top                 213      428      ok (non-closed singly connected)  
    bottom              213      428      ok (non-closed singly connected)  
    defaultFaces        126500   127826   ok (non-closed singly connected)  

Checking geometry...
    Overall domain bounding box (-10 -10 -0.05) (20 10 0.05)
    Mesh has 2 geometric (non-empty/wedge) directions (1 1 0)
    Mesh has 2 solution (non-empty) directions (1 1 0)
    All edges aligned with or perpendicular to non-empty directions.
    Boundary openness (-2.02266e-19 3.59935e-18 -7.9882e-16) OK.
    Max cell openness = 2.45967e-16 OK.
    Max aspect ratio = 16.1606 OK.
    Minimum face area = 0.00016657. Maximum face area = 0.0965174.  Face area magnitudes OK.
    Min volume = 1.6657e-05. Max volume = 0.00965174.  Total volume = 59.9215.  Cell volumes OK.
    Mesh non-orthogonality Max: 44.3467 average: 11.57
    Non-orthogonality check OK.
    Face pyramids OK.
    Max skewness = 0.860213 OK.
    Coupled point location match (average 0) OK.

Mesh OK.

End

